define procedure (new line) to do
	(write line "").
write "hello world".
new line.
